Version 4
SHEET 1 880 680
WIRE 128 -96 48 -96
WIRE 352 -96 208 -96
WIRE 480 -96 416 -96
WIRE 48 64 48 -96
WIRE 128 64 48 64
WIRE 288 64 208 64
WIRE 352 64 288 64
WIRE 480 64 480 -96
WIRE 480 64 416 64
WIRE 288 144 288 64
WIRE 48 160 48 64
WIRE 48 272 48 240
WIRE 288 272 288 208
WIRE 288 272 48 272
WIRE 480 272 480 64
WIRE 480 272 288 272
WIRE 48 288 48 272
FLAG 48 288 0
SYMBOL voltage 48 144 R0
WINDOW 123 0 0 Left 2
WINDOW 39 0 0 Left 2
SYMATTR InstName V1
SYMATTR Value PULSE(0 3 10m 0 0 10m 20m)
SYMBOL res 112 -80 R270
WINDOW 0 32 56 VTop 2
WINDOW 3 0 56 VBottom 2
SYMATTR InstName R1
SYMATTR Value 1k
SYMBOL res 112 80 R270
WINDOW 0 32 56 VTop 2
WINDOW 3 0 56 VBottom 2
SYMATTR InstName R2
SYMATTR Value 1k
SYMBOL LED 352 -80 R270
WINDOW 0 72 32 VTop 2
WINDOW 3 0 32 VBottom 2
SYMATTR InstName D1
SYMBOL LED 352 80 R270
WINDOW 0 72 32 VTop 2
WINDOW 3 0 32 VBottom 2
SYMATTR InstName D2
SYMBOL cap 272 144 R0
SYMATTR InstName C1
SYMATTR Value 100u
TEXT 14 312 Left 2 !.tran 100m
TEXT 272 32 Left 2 ;n003
TEXT 280 -128 Left 2 ;n002
TEXT 40 -128 Left 2 ;n001
