Version 4
SHEET 1 884 680
WIRE 160 -64 32 -64
WIRE 640 -64 160 -64
WIRE 800 -64 640 -64
WIRE 432 -16 272 -16
WIRE 640 -16 640 -64
WIRE 800 -16 800 -64
WIRE 160 48 160 -64
WIRE 272 48 272 -16
WIRE 304 48 272 48
WIRE 432 64 432 -16
WIRE 432 64 368 64
WIRE 480 64 432 64
WIRE 304 80 272 80
WIRE 32 144 32 -64
WIRE 160 144 160 128
WIRE 272 144 272 80
WIRE 272 144 160 144
WIRE 560 144 560 64
WIRE 640 144 640 48
WIRE 640 144 560 144
WIRE 800 144 800 64
WIRE 800 144 640 144
WIRE 880 144 800 144
WIRE 160 176 160 144
WIRE 304 176 256 176
WIRE 432 192 368 192
WIRE 480 192 432 192
WIRE 560 192 560 144
WIRE 272 208 272 144
WIRE 304 208 272 208
WIRE 800 208 800 144
WIRE 640 224 640 144
WIRE 256 272 256 176
WIRE 432 272 432 192
WIRE 432 272 256 272
WIRE 32 336 32 224
WIRE 160 336 160 256
WIRE 160 336 32 336
WIRE 640 336 640 288
WIRE 640 336 160 336
WIRE 800 336 800 288
WIRE 800 336 640 336
WIRE 32 368 32 336
WIRE 880 368 880 144
WIRE 880 368 32 368
WIRE 32 416 32 368
FLAG 32 416 0
SYMBOL Misc\\battery 32 128 R0
SYMATTR InstName V1
SYMATTR Value 10V
SYMBOL res 144 32 R0
SYMATTR InstName R1
SYMATTR Value 10k
SYMBOL res 144 160 R0
SYMATTR InstName R2
SYMATTR Value 10k
SYMBOL Opamps\\LT1001 336 0 R0
SYMATTR InstName U1
SYMBOL Opamps\\LT1001 336 128 R0
SYMATTR InstName U2
SYMBOL res 464 80 R270
WINDOW 0 32 56 VTop 2
WINDOW 3 0 56 VBottom 2
SYMATTR InstName R3
SYMATTR Value 22
SYMBOL res 464 208 R270
WINDOW 0 32 56 VTop 2
WINDOW 3 0 56 VBottom 2
SYMATTR InstName R4
SYMATTR Value 22
SYMBOL cap 624 -16 R0
SYMATTR InstName C1
SYMATTR Value 470u
SYMBOL cap 624 224 R0
SYMATTR InstName C2
SYMATTR Value 470u
SYMBOL res 784 -32 R0
SYMATTR InstName R5
SYMATTR Value 100
SYMBOL res 784 192 R0
SYMATTR InstName R6
SYMATTR Value 100
TEXT -2 440 Left 2 !.tran 1000m
